@<TRIPOS>MOLECULE
BDV_1_3L5D
 65 66 0 0 0
SMALL
GASTEIGER

@<TRIPOS>ATOM
      1 C1          6.5668    6.8592    6.8592 C.3     1  UNL1       -0.0652
      2 C2          6.6323    6.1248    5.5284 C.3     1  UNL1       -0.0545
      3 C3          5.4613    5.1540    5.3627 C.3     1  UNL1       -0.0376
      4 C4          5.4718    4.4413    4.0077 C.3     1  UNL1        0.0130
      5 N1          6.6106    3.5612    3.8382 N.am    1  UNL1       -0.2994
      6 C5          6.6449    2.3212    4.4098 C.2     1  UNL1        0.2999
      7 O1          5.7295    1.8438    5.0670 O.2     1  UNL1       -0.2529
      8 N2          7.8347    1.6787    4.1888 N.am    1  UNL1       -0.2953
      9 C6          8.0348    0.3177    4.6357 C.3     1  UNL1        0.0383
     10 C7          8.4767    0.2689    6.0817 C.ar    1  UNL1       -0.0303
     11 C8          7.5315    0.3083    7.1154 C.ar    1  UNL1       -0.0568
     12 C9          7.9278    0.3828    8.4525 C.ar    1  UNL1       -0.0568
     13 C10         9.2850    0.3554    8.7922 C.ar    1  UNL1       -0.0297
     14 C11        10.2319    0.3118    7.7551 C.ar    1  UNL1       -0.0568
     15 C12         9.8328    0.2853    6.4158 C.ar    1  UNL1       -0.0568
     16 C13         9.7454    0.3290   10.2299 C.3     1  UNL1        0.0502
     17 N3          9.9102   -1.0603   10.6585 N.am    1  UNL1       -0.2106
     18 C14         8.9929   -1.8390   11.3819 C.3     1  UNL1        0.0736
     19 N4          7.6195   -1.5388   11.0977 N.4     1  UNL1        0.2701
     20 N5          9.3215   -3.2090   11.0001 N.4     1  UNL1        0.2881
     21 C15        10.8714   -3.2061   10.8157 C.3     1  UNL1        0.0706
     22 C16        11.1951   -4.1186    9.6376 C.3     1  UNL1       -0.0098
     23 C17        11.4613   -3.6720   12.1619 C.3     1  UNL1        0.0041
     24 C18        12.9919   -3.8500   12.2672 C.3     1  UNL1       -0.0409
     25 C19        13.7606   -2.5399   12.1186 C.3     1  UNL1       -0.0625
     26 C20        13.3391   -4.4765   13.6250 C.3     1  UNL1       -0.0625
     27 C21        11.1037   -1.7419   10.4281 C.2     1  UNL1        0.2753
     28 O2         12.0937   -1.2604    9.9154 O.2     1  UNL1       -0.2687
     29 H1          9.1599   -1.7222   12.4594 H       1  UNL1        0.1733
     30 H2          7.4070   -1.5412   10.0928 H       1  UNL1        0.2071
     31 H3          6.9412   -2.1396   11.5819 H       1  UNL1        0.2071
     32 H4          7.4043   -0.5866   11.4262 H       1  UNL1        0.2071
     33 H5          9.0426   -3.9302   11.6769 H       1  UNL1        0.2104
     34 H6          8.9241   -3.4510   10.0855 H       1  UNL1        0.2104
     35 H7          7.4131    7.5471    6.9535 H       1  UNL1        0.0230
     36 H8          6.6054    6.1572    7.6983 H       1  UNL1        0.0230
     37 H9          5.6447    7.4436    6.9418 H       1  UNL1        0.0230
     38 H10         7.5831    5.5834    5.4697 H       1  UNL1        0.0263
     39 H11         6.6237    6.8583    4.7140 H       1  UNL1        0.0263
     40 H12         4.5194    5.7090    5.4542 H       1  UNL1        0.0280
     41 H13         5.4777    4.4187    6.1766 H       1  UNL1        0.0280
     42 H14         5.4901    5.1662    3.1880 H       1  UNL1        0.0462
     43 H15         4.5590    3.8428    3.9099 H       1  UNL1        0.0462
     44 H16         7.4602    3.9518    3.4596 H       1  UNL1        0.1502
     45 H17         8.3766    1.9950    3.3976 H       1  UNL1        0.1506
     46 H18         8.7940   -0.1392    3.9912 H       1  UNL1        0.0512
     47 H19         7.1107   -0.2567    4.5002 H       1  UNL1        0.0512
     48 H20         6.4702    0.3482    6.8651 H       1  UNL1        0.0621
     49 H21         7.1475    0.5241    9.1929 H       1  UNL1        0.0621
     50 H22        11.3016    0.3355    7.9705 H       1  UNL1        0.0621
     51 H23        10.5898    0.3068    5.6317 H       1  UNL1        0.0621
     52 H24         9.0417    0.8440   10.8915 H       1  UNL1        0.0518
     53 H25        10.7067    0.8504   10.3160 H       1  UNL1        0.0518
     54 H26        10.8503   -5.1425    9.8135 H       1  UNL1        0.0292
     55 H27        12.2727   -4.1462    9.4450 H       1  UNL1        0.0292
     56 H28        10.7247   -3.7573    8.7144 H       1  UNL1        0.0292
     57 H29        11.0123   -4.6496   12.3955 H       1  UNL1        0.0330
     58 H30        11.1359   -2.9965   12.9637 H       1  UNL1        0.0330
     59 H31        13.3349   -4.5466   11.4933 H       1  UNL1        0.0298
     60 H32        13.2653   -1.7213   12.6516 H       1  UNL1        0.0232
     61 H33        13.8602   -2.2703   11.0660 H       1  UNL1        0.0232
     62 H34        14.7806   -2.6258   12.5069 H       1  UNL1        0.0232
     63 H35        12.9955   -3.8467   14.4529 H       1  UNL1        0.0232
     64 H36        14.4218   -4.6084   13.7283 H       1  UNL1        0.0232
     65 H37        12.8759   -5.4630   13.7309 H       1  UNL1        0.0232
@<TRIPOS>BOND
   1    1    2    1
   2    2    3    1
   3    3    4    1
   4    4    5    1
   5    5    6   am
   6    6    7    2
   7    6    8   am
   8    8    9    1
   9    9   10    1
  10   10   11   ar
  11   11   12   ar
  12   12   13   ar
  13   13   14   ar
  14   14   15   ar
  15   10   15   ar
  16   13   16    1
  17   16   17    1
  18   17   18    1
  19   18   29    1
  20   18   19    1
  21   19   30    1
  22   19   31    1
  23   19   32    1
  24   18   20    1
  25   20   33    1
  26   20   34    1
  27   20   21    1
  28   21   22    1
  29   21   23    1
  30   23   24    1
  31   24   25    1
  32   24   26    1
  33   21   27    1
  34   17   27   am
  35   27   28    2
  36    1   35    1
  37    1   36    1
  38    1   37    1
  39    2   38    1
  40    2   39    1
  41    3   40    1
  42    3   41    1
  43    4   42    1
  44    4   43    1
  45    5   44    1
  46    8   45    1
  47    9   46    1
  48    9   47    1
  49   11   48    1
  50   12   49    1
  51   14   50    1
  52   15   51    1
  53   16   52    1
  54   16   53    1
  55   22   54    1
  56   22   55    1
  57   22   56    1
  58   23   57    1
  59   23   58    1
  60   24   59    1
  61   25   60    1
  62   25   61    1
  63   25   62    1
  64   26   63    1
  65   26   64    1
  66   26   65    1
