@<TRIPOS>MOLECULE
BDV_1_3L5D
 65 66 0 0 0
SMALL
GASTEIGER

@<TRIPOS>ATOM
      1 C           6.5668    6.8592    6.8592 C.3     1  UNL1       -0.0652
      2 C           6.6323    6.1248    5.5284 C.3     1  UNL1       -0.0545
      3 C           5.4613    5.1540    5.3627 C.3     1  UNL1       -0.0376
      4 C           5.4718    4.4413    4.0077 C.3     1  UNL1        0.0130
      5 N           6.6106    3.5612    3.8382 N.am    1  UNL1       -0.2994
      6 C           6.6449    2.3212    4.4098 C.2     1  UNL1        0.2999
      7 O           5.7295    1.8438    5.0670 O.2     1  UNL1       -0.2529
      8 N           7.8347    1.6787    4.1888 N.am    1  UNL1       -0.2953
      9 C           8.0348    0.3177    4.6357 C.3     1  UNL1        0.0383
     10 C           8.4767    0.2689    6.0817 C.ar    1  UNL1       -0.0303
     11 C           7.5315    0.3083    7.1154 C.ar    1  UNL1       -0.0568
     12 C           7.9278    0.3828    8.4525 C.ar    1  UNL1       -0.0568
     13 C           9.2850    0.3554    8.7922 C.ar    1  UNL1       -0.0297
     14 C          10.2319    0.3118    7.7551 C.ar    1  UNL1       -0.0568
     15 C           9.8328    0.2853    6.4158 C.ar    1  UNL1       -0.0568
     16 C           9.7454    0.3290   10.2299 C.3     1  UNL1        0.0502
     17 N           9.9102   -1.0603   10.6585 N.am    1  UNL1       -0.2106
     18 C           8.9929   -1.8390   11.3819 C.3     1  UNL1        0.0736
     19 H           9.1599   -1.7222   12.4594 H       1  UNL1        0.1733
     20 N           7.6195   -1.5388   11.0977 N.4     1  UNL1        0.2701
     21 H           7.4070   -1.5412   10.0928 H       1  UNL1        0.2071
     22 H           6.9412   -2.1396   11.5819 H       1  UNL1        0.2071
     23 H           7.4043   -0.5866   11.4262 H       1  UNL1        0.2071
     24 N           9.3215   -3.2090   11.0001 N.4     1  UNL1        0.2881
     25 H           9.0426   -3.9302   11.6769 H       1  UNL1        0.2104
     26 H           8.9241   -3.4510   10.0855 H       1  UNL1        0.2104
     27 C          10.8714   -3.2061   10.8157 C.3     1  UNL1        0.0706
     28 C          11.1951   -4.1186    9.6376 C.3     1  UNL1       -0.0098
     29 C          11.4613   -3.6720   12.1619 C.3     1  UNL1        0.0041
     30 C          12.9919   -3.8500   12.2672 C.3     1  UNL1       -0.0409
     31 C          13.7606   -2.5399   12.1186 C.3     1  UNL1       -0.0625
     32 C          13.3391   -4.4765   13.6250 C.3     1  UNL1       -0.0625
     33 C          11.1037   -1.7419   10.4281 C.2     1  UNL1        0.2753
     34 O          12.0937   -1.2604    9.9154 O.2     1  UNL1       -0.2687
     35 H           7.4131    7.5471    6.9535 H       1  UNL1        0.0230
     36 H           6.6054    6.1572    7.6983 H       1  UNL1        0.0230
     37 H           5.6447    7.4436    6.9418 H       1  UNL1        0.0230
     38 H           7.5831    5.5834    5.4697 H       1  UNL1        0.0263
     39 H           6.6237    6.8583    4.7140 H       1  UNL1        0.0263
     40 H           4.5194    5.7090    5.4542 H       1  UNL1        0.0280
     41 H           5.4777    4.4187    6.1766 H       1  UNL1        0.0280
     42 H           5.4901    5.1662    3.1880 H       1  UNL1        0.0462
     43 H           4.5590    3.8428    3.9099 H       1  UNL1        0.0462
     44 H           7.4602    3.9518    3.4596 H       1  UNL1        0.1502
     45 H           8.3766    1.9950    3.3976 H       1  UNL1        0.1506
     46 H           8.7940   -0.1392    3.9912 H       1  UNL1        0.0512
     47 H           7.1107   -0.2567    4.5002 H       1  UNL1        0.0512
     48 H           6.4702    0.3482    6.8651 H       1  UNL1        0.0621
     49 H           7.1475    0.5241    9.1929 H       1  UNL1        0.0621
     50 H          11.3016    0.3355    7.9705 H       1  UNL1        0.0621
     51 H          10.5898    0.3068    5.6317 H       1  UNL1        0.0621
     52 H           9.0417    0.8440   10.8915 H       1  UNL1        0.0518
     53 H          10.7067    0.8504   10.3160 H       1  UNL1        0.0518
     54 H          10.8503   -5.1425    9.8135 H       1  UNL1        0.0292
     55 H          12.2727   -4.1462    9.4450 H       1  UNL1        0.0292
     56 H          10.7247   -3.7573    8.7144 H       1  UNL1        0.0292
     57 H          11.0123   -4.6496   12.3955 H       1  UNL1        0.0330
     58 H          11.1359   -2.9965   12.9637 H       1  UNL1        0.0330
     59 H          13.3349   -4.5466   11.4933 H       1  UNL1        0.0298
     60 H          13.2653   -1.7213   12.6516 H       1  UNL1        0.0232
     61 H          13.8602   -2.2703   11.0660 H       1  UNL1        0.0232
     62 H          14.7806   -2.6258   12.5069 H       1  UNL1        0.0232
     63 H          12.9955   -3.8467   14.4529 H       1  UNL1        0.0232
     64 H          14.4218   -4.6084   13.7283 H       1  UNL1        0.0232
     65 H          12.8759   -5.4630   13.7309 H       1  UNL1        0.0232
@<TRIPOS>BOND
     1     1     2    1
     2     2     3    1
     3     3     4    1
     4     4     5    1
     5     5     6   am
     6     6     7    2
     7     6     8   am
     8     8     9    1
     9     9    10    1
    10    10    11   ar
    11    11    12   ar
    12    12    13   ar
    13    13    14   ar
    14    14    15   ar
    15    10    15   ar
    16    13    16    1
    17    16    17    1
    18    17    18    1
    19    18    19    1
    20    18    20    1
    21    20    21    1
    22    20    22    1
    23    20    23    1
    24    18    24    1
    25    24    25    1
    26    24    26    1
    27    24    27    1
    28    27    28    1
    29    27    29    1
    30    29    30    1
    31    30    31    1
    32    30    32    1
    33    27    33    1
    34    17    33   am
    35    33    34    2
    36     1    35    1
    37     1    36    1
    38     1    37    1
    39     2    38    1
    40     2    39    1
    41     3    40    1
    42     3    41    1
    43     4    42    1
    44     4    43    1
    45     5    44    1
    46     8    45    1
    47     9    46    1
    48     9    47    1
    49    11    48    1
    50    12    49    1
    51    14    50    1
    52    15    51    1
    53    16    52    1
    54    16    53    1
    55    28    54    1
    56    28    55    1
    57    28    56    1
    58    29    57    1
    59    29    58    1
    60    30    59    1
    61    31    60    1
    62    31    61    1
    63    31    62    1
    64    32    63    1
    65    32    64    1
    66    32    65    1
